Version 4
SHEET 1 996 680
WIRE 16 -16 -80 -16
WIRE 144 -16 16 -16
WIRE -80 48 -80 -16
WIRE 928 48 720 48
WIRE 144 64 144 -16
WIRE 192 64 144 64
WIRE 304 64 272 64
WIRE 384 64 304 64
WIRE 528 64 448 64
WIRE 640 64 528 64
WIRE 720 64 720 48
WIRE 720 64 640 64
WIRE 640 112 640 64
WIRE 144 128 144 64
WIRE 304 128 304 64
WIRE 528 128 528 64
WIRE -80 160 -80 128
WIRE 928 176 928 48
WIRE 720 192 720 64
WIRE 16 224 16 -16
WIRE 64 224 16 224
WIRE 528 224 528 208
WIRE 528 224 384 224
WIRE 640 224 640 176
WIRE 640 224 528 224
WIRE 528 240 528 224
WIRE 720 288 720 256
WIRE 928 288 928 256
WIRE 528 352 528 320
WIRE 224 384 224 320
FLAG 224 384 0
FLAG 528 352 0
FLAG -80 160 0
FLAG 720 288 0
FLAG 928 288 0
SYMBOL PowerProducts\\LT1930 224 224 R0
SYMATTR InstName U1
SYMBOL res 512 112 R0
SYMATTR InstName R1
SYMATTR Value 113k
SYMBOL res 512 224 R0
SYMATTR InstName R2
SYMATTR Value 30k
SYMBOL voltage -80 32 R0
WINDOW 123 0 0 Left 0
WINDOW 39 0 0 Left 0
SYMATTR InstName V1
SYMATTR Value 3.3
SYMBOL ind 288 48 R90
WINDOW 0 5 56 VBottom 2
WINDOW 3 32 56 VTop 2
SYMATTR InstName L1
SYMATTR Value 1µ
SYMBOL cap 704 192 R0
SYMATTR InstName C1
SYMATTR Value 4.7µ
SYMBOL schottky 384 80 R270
WINDOW 0 32 32 VTop 2
WINDOW 3 0 32 VBottom 2
SYMATTR InstName D1
SYMATTR Value RB10L-40
SYMATTR Description Diode
SYMATTR Type diode
SYMBOL res 912 160 R0
SYMATTR InstName R3
SYMATTR Value 500
SYMBOL cap 624 112 R0
SYMATTR InstName C2
SYMATTR Value 10p
TEXT -114 408 Left 2 !.tran 1m
