Version 4
SHEET 1 880 680
SYMBOL PowerProducts\\LT1962-1.8 208 144 R0
SYMATTR InstName U1
