Version 4
SHEET 1 1096 680
WIRE 64 96 -80 96
WIRE 128 96 64 96
WIRE 288 96 224 96
WIRE 368 96 288 96
WIRE 736 96 592 96
WIRE 800 96 736 96
WIRE 1040 96 896 96
WIRE 736 112 736 96
WIRE -80 128 -80 96
WIRE 368 128 368 96
WIRE 592 128 592 96
WIRE 1040 128 1040 96
WIRE 816 192 816 144
WIRE 816 192 736 192
WIRE 208 208 208 144
WIRE 816 208 816 192
WIRE -80 240 -80 208
WIRE 368 240 368 208
WIRE 592 240 592 208
WIRE 1040 240 1040 208
WIRE 816 304 816 272
FLAG 208 208 0
FLAG 368 240 0
FLAG -80 240 0
FLAG 1040 240 0
FLAG 592 240 0
FLAG 816 304 0
FLAG 64 96 pmos+
FLAG 288 96 pmos-
SYMBOL pmos 128 144 R270
SYMATTR InstName M1
SYMATTR Value SP8M6_P
SYMBOL res 352 112 R0
SYMATTR InstName R1
SYMATTR Value 1k
SYMBOL Misc\\signal -80 112 R0
WINDOW 3 -320 105 Left 2
WINDOW 123 0 0 Left 0
WINDOW 39 0 0 Left 0
SYMATTR InstName V2
SYMATTR Value PULSE(-50 50 0 1m 1m 0 0 3)
SYMBOL pmos 896 144 M270
SYMATTR InstName M2
SYMATTR Value SP8M6_P
SYMBOL res 1024 112 R0
SYMATTR InstName R2
SYMATTR Value 1k
SYMBOL Misc\\signal 592 112 R0
WINDOW 3 -139 178 Left 2
WINDOW 123 0 0 Left 0
WINDOW 39 0 0 Left 0
SYMATTR InstName V1
SYMATTR Value PULSE(-5 5 0 1m 1m 0 0 3)
SYMBOL res 720 96 R0
SYMATTR InstName R3
SYMATTR Value 450
SYMBOL zener 800 208 R0
SYMATTR InstName D1
SYMATTR Value BZX84C10L
SYMATTR Description Diode
SYMATTR Type diode
TEXT -98 344 Left 2 !.tran 5m startup
