Version 4
SHEET 1 880 680
WIRE -656 64 -864 64
WIRE -64 112 -240 112
WIRE 320 112 16 112
WIRE 432 112 320 112
WIRE 688 112 432 112
WIRE -656 128 -656 64
WIRE -864 192 -864 64
WIRE 688 208 688 112
WIRE 320 224 320 112
WIRE 432 224 432 112
WIRE -240 272 -240 112
WIRE -864 384 -864 272
WIRE -656 384 -656 208
WIRE -240 400 -240 352
WIRE 160 400 -240 400
WIRE 320 400 320 288
WIRE 320 400 160 400
WIRE 432 400 432 288
WIRE 432 400 320 400
WIRE 688 400 688 288
WIRE 688 400 432 400
FLAG 160 400 0
FLAG -656 384 0
FLAG -864 384 0
SYMBOL TVSdiode 416 224 R0
SYMATTR InstName D1
SYMATTR Value SMBJ24CA
SYMBOL voltage -656 112 R0
WINDOW 123 0 0 Left 0
WINDOW 39 24 124 Left 2
SYMATTR InstName V1
SYMATTR Value 5
SYMATTR SpiceLine Rser=1
SYMBOL voltage -240 256 R0
WINDOW 3 24 152 Left 2
WINDOW 123 0 0 Left 0
WINDOW 39 24 124 Left 2
SYMATTR InstName V3
SYMATTR Value {D}
SYMATTR SpiceLine Rser=1
SYMBOL res -880 176 R0
SYMATTR InstName R1
SYMATTR Value 1k
SYMBOL res 672 192 R0
SYMATTR InstName R2
SYMATTR Value 1k
SYMBOL res 32 96 R90
WINDOW 0 0 56 VBottom 2
WINDOW 3 32 56 VTop 2
SYMATTR InstName R3
SYMATTR Value 1
TEXT -884 424 Left 2 !.step param D 1 100 1
TEXT -886 444 Left 2 !.op
