Version 4
SHEET 1 3496 1300
WIRE 160 -96 160 -160
WIRE -272 -48 -320 -48
WIRE -112 -48 -208 -48
WIRE 848 0 816 0
WIRE 880 0 848 0
WIRE 1008 0 880 0
WIRE -112 48 -112 -48
WIRE 160 48 -112 48
WIRE 160 48 160 -16
WIRE 320 48 320 -48
WIRE 320 48 160 48
WIRE 880 48 880 0
WIRE 1008 48 1008 0
WIRE 1088 48 1008 48
WIRE 1504 48 1504 0
WIRE 1504 48 1376 48
WIRE -752 80 -752 48
WIRE -608 80 -608 48
WIRE 160 96 160 48
WIRE -272 128 -320 128
WIRE -112 128 -112 48
WIRE -112 128 -208 128
WIRE 320 144 320 48
WIRE 880 176 880 112
WIRE 928 176 880 176
WIRE 1088 176 1008 176
WIRE 1472 176 1376 176
WIRE -752 208 -752 160
WIRE -672 208 -752 208
WIRE -608 208 -608 160
WIRE -608 208 -672 208
WIRE 32 224 -64 224
WIRE 160 224 112 224
WIRE 160 224 160 176
WIRE -64 240 -64 224
WIRE -672 256 -672 208
WIRE 160 272 160 224
WIRE 848 288 848 0
WIRE 976 288 848 288
WIRE 1088 288 1040 288
WIRE 1472 288 1472 256
WIRE 1472 288 1376 288
WIRE -528 320 -720 320
WIRE -400 320 -528 320
WIRE -176 320 -304 320
WIRE -32 320 -176 320
WIRE 80 320 -32 320
WIRE 320 320 320 208
WIRE 320 320 176 320
WIRE 400 320 320 320
WIRE 528 320 400 320
WIRE 544 320 528 320
WIRE -176 352 -176 320
WIRE 1472 352 1472 288
WIRE -720 384 -720 320
WIRE 528 384 528 320
WIRE -528 432 -528 320
WIRE -720 464 -720 384
WIRE -320 480 -320 368
WIRE -240 480 -320 480
WIRE -176 480 -176 416
WIRE -176 480 -240 480
WIRE 528 512 528 464
WIRE -240 528 -240 480
WIRE -528 576 -528 496
WIRE -720 592 -720 544
WIRE -240 640 -240 608
WIRE 976 688 976 656
WIRE 720 784 720 720
WIRE 976 784 976 768
WIRE 1024 784 976 784
WIRE 976 800 976 784
WIRE 720 912 720 864
WIRE 976 928 976 864
FLAG -720 592 0
FLAG 400 320 Vout2
FLAG -720 384 Vbat
FLAG -64 240 0
FLAG 320 -48 Vexternal
FLAG 1520 -32 Vbat_protected
FLAG 1472 352 0
FLAG -672 256 0
FLAG -752 48 Vusb
FLAG -608 48 Vsolar
FLAG -352 -48 Vusb
FLAG -352 128 Vsolar
FLAG 800 -16 Vexternal
FLAG 528 512 0
FLAG -528 576 0
FLAG -240 640 0
FLAG -32 320 Vbat_protected
FLAG 976 928 0
FLAG 720 912 0
FLAG 720 720 Vcc
FLAG 976 656 Vcc
FLAG 1024 784 Vref
FLAG 160 -160 0
DATAFLAG 544 320 ""
DATAFLAG -16 48 ""
DATAFLAG 1408 48 ""
SYMBOL pmos 80 272 M90
SYMATTR InstName M1
SYMATTR Value FDR840P
SYMBOL res 144 80 R0
SYMATTR InstName R1
SYMATTR Value 10k
SYMBOL schottky 304 144 R0
SYMATTR InstName D1
SYMATTR Value 1N5817
SYMBOL Misc\\battery -720 448 R0
WINDOW 123 0 0 Left 0
WINDOW 39 24 132 Left 2
SYMATTR SpiceLine Rser=50m
SYMATTR InstName V1
SYMATTR Value 3
SYMBOL schottky -272 -32 R270
WINDOW 0 32 32 VTop 2
WINDOW 3 0 32 VBottom 2
SYMATTR InstName D2
SYMATTR Value 1N5817
SYMBOL schottky -272 144 R270
WINDOW 0 32 32 VTop 2
WINDOW 3 0 32 VBottom 2
SYMATTR InstName D3
SYMATTR Value 1N5817
SYMBOL res 128 208 R90
WINDOW 0 0 56 VBottom 2
WINDOW 3 32 56 VTop 2
SYMATTR InstName R3
SYMATTR Value 50k
SYMBOL PowerProducts\\LTC4065 1232 176 R0
SYMATTR InstName U1
SYMBOL LED 864 48 R0
SYMATTR InstName D4
SYMATTR Value QTLP690C
SYMBOL res 1024 160 R90
WINDOW 0 0 56 VBottom 2
WINDOW 3 32 56 VTop 2
SYMATTR InstName R2
SYMATTR Value 1k
SYMBOL voltage -752 64 R0
WINDOW 123 0 0 Left 0
WINDOW 39 24 124 Left 2
SYMATTR SpiceLine Rser=1
SYMATTR InstName V2
SYMATTR Value 5
SYMBOL voltage -608 64 R0
WINDOW 123 0 0 Left 0
WINDOW 39 24 124 Left 2
SYMATTR SpiceLine Rser=0.7
SYMATTR InstName V3
SYMATTR Value 5
SYMBOL res 1456 160 R0
SYMATTR InstName R4
SYMATTR Value 2k
SYMBOL res 512 368 R0
SYMATTR InstName R5
SYMATTR Value 100
SYMBOL Digital\\inv 976 224 R0
WINDOW 3 8 60 Invisible 2
SYMATTR Value Vhigh=5 Vlow = 0
SYMATTR InstName A1
SYMBOL TVSdiode -544 432 R0
SYMATTR InstName D5
SYMATTR Value SMBJ24CA
SYMBOL pmos -400 368 R270
SYMATTR InstName M2
SYMATTR Value FDR840P
SYMBOL zener -160 416 R180
WINDOW 0 24 64 Left 2
WINDOW 3 24 0 Left 2
SYMATTR InstName D6
SYMATTR Value MMBZ6V8ALY
SYMBOL res -256 512 R0
SYMATTR InstName R6
SYMATTR Value 1k
SYMBOL zener 992 864 R180
WINDOW 0 24 64 Left 2
WINDOW 3 24 0 Left 2
SYMATTR InstName D7
SYMATTR Value 1N750
SYMBOL res 960 672 R0
SYMATTR InstName R8
SYMATTR Value 300
SYMBOL voltage 720 768 R0
WINDOW 123 0 0 Left 0
WINDOW 39 0 0 Left 0
SYMATTR InstName V4
SYMATTR Value 5
SYMBOL res 144 -112 R0
SYMATTR InstName R7
SYMATTR Value 1k
TEXT -512 664 Left 2 !;tran 10m
TEXT -786 952 Left 2 !.tran 10m
